/*--------------------------------*- C++ -*----------------------------------*\
  =========                 |
  \\      /  F ield         | OpenFOAM: The Open Source CFD Toolbox
   \\    /   O peration     | Website:  https://openfoam.org
    \\  /    A nd           | Version:  7
     \\/     M anipulation  |
\*---------------------------------------------------------------------------*/
FoamFile
{
    version     2.0;
    format      ascii;
    class       polyBoundaryMesh;
    location    "constant/polyMesh";
    object      boundary;
}
// * * * * * * * * * * * * * * * * * * * * * * * * * * * * * * * * * * * * * //

4
(
    flange_patch1
    {
        type            wall;
        inGroups        List<word> 1(wall);
        nFaces          7446;
        startFace       53740;
    }
    flange_patch2
    {
        type            wall;
        inGroups        List<word> 1(wall);
        nFaces          1168;
        startFace       61186;
    }
    flange_patch3
    {
        type            wall;
        inGroups        List<word> 1(wall);
        nFaces          238;
        startFace       62354;
    }
    flange_patch4
    {
        type            wall;
        inGroups        List<word> 1(wall);
        nFaces          1204;
        startFace       62592;
    }
)

// ************************************************************************* //
